       5
 i =        0, time =        0.000, E =       -38.9212142937
  H         0.0000000000        0.0000000000        0.0000000000
  C        -0.0000251945       -0.0001791775       -0.0002547953
  O        -0.0000542905       -0.0000494854       -0.0000145135
  O         0.0001100898        0.0000802840        0.0000411284
  H        -0.0000306048        0.0001483790        0.0002281804
       5
 i =        1, time =        0.500, E =       -38.9209301609
  H         0.0000000000        0.0000000000        0.0000000000
  C        -0.0000117454       -0.0001616319       -0.0002517084
  O        -0.0000484309       -0.0000541925       -0.0000227872
  O         0.0001050885        0.0000746764        0.0000412743
  H        -0.0000257532        0.0001496191        0.0002282868
       5
 i =        2, time =        1.000, E =       -38.9206091564
  H         0.0000000000        0.0000000000        0.0000000000
  C        -0.0000094171       -0.0001663324       -0.0002735777
  O        -0.0000624063       -0.0000823285       -0.0000036753
  O         0.0001057630        0.0000583943        0.0000295405
  H        -0.0000145777        0.0001301124        0.0002490457
