       5
 i =        0, time =        0.000, E =       -38.9212142937
  H         0.0000000000        0.0000000000        0.0000000000
  C        -0.0041123078        0.0374074663        0.0296312837
  O         0.0063823095       -0.0219341067        0.0151217241
  O        -0.0022185138       -0.0148127701       -0.0437409441
  H         0.0037353891       -0.0037422268        0.0206281605
       5
 i =        1, time =        0.500, E =       -38.9209301609
  H         0.0000000000        0.0000000000        0.0000000000
  C        -0.0035769791        0.0367498275        0.0390009983
  O         0.0061835713       -0.0223405231        0.0107156956
  O        -0.0023422456       -0.0138329987       -0.0488020512
  H         0.0034216400       -0.0033926980        0.0190060893
       5
 i =        2, time =        1.000, E =       -38.9206091564
  H         0.0000000000        0.0000000000        0.0000000000
  C        -0.0030624469        0.0359647317        0.0487475831
  O         0.0059858350       -0.0227203924        0.0061218913
  O        -0.0024522716       -0.0127200305       -0.0540334654
  H         0.0030959846       -0.0030382538        0.0172876899
